Data/networks/opendssNetworks/network_3/Feeder_4/Lines.txt
New Line.LINE1 Bus1=1 Bus2=2 phases=3 Linecode=4c_.1 Length=0.74068 Units=m
New Line.LINE2 Bus1=2 Bus2=3 phases=3 Linecode=4c_.1 Length=0.037656 Units=m
New Line.LINE3 Bus1=3 Bus2=4 phases=3 Linecode=4c_.1 Length=0.037696 Units=m
New Line.LINE4 Bus1=4 Bus2=5 phases=3 Linecode=4c_.1 Length=0.059641 Units=m
New Line.LINE5 Bus1=5 Bus2=6 phases=3 Linecode=4c_.1 Length=0.063411 Units=m
New Line.LINE6 Bus1=6 Bus2=7 phases=3 Linecode=4c_.1 Length=0.067357 Units=m
New Line.LINE7 Bus1=7 Bus2=8 phases=3 Linecode=4c_.1 Length=0.05201 Units=m
New Line.LINE8 Bus1=8 Bus2=9 phases=3 Linecode=4c_.1 Length=1.6436 Units=m
New Line.LINE9 Bus1=9 Bus2=10 phases=3 Linecode=4c_.1 Length=0.53905 Units=m
New Line.LINE10 Bus1=10 Bus2=11 phases=3 Linecode=4c_.1 Length=0.53905 Units=m
New Line.LINE11 Bus1=11 Bus2=12 phases=3 Linecode=4c_.1 Length=0.23133 Units=m
New Line.LINE12 Bus1=12 Bus2=13 phases=3 Linecode=4c_.1 Length=0.2149 Units=m
New Line.LINE13 Bus1=13 Bus2=14 phases=3 Linecode=4c_.1 Length=0.2 Units=m
New Line.LINE14 Bus1=14 Bus2=15 phases=3 Linecode=4c_.1 Length=0.23844 Units=m
New Line.LINE15 Bus1=15 Bus2=16 phases=3 Linecode=4c_.1 Length=1.2611 Units=m
New Line.LINE16 Bus1=16 Bus2=17 phases=3 Linecode=4c_.1 Length=1.7867 Units=m
New Line.LINE17 Bus1=17 Bus2=18 phases=3 Linecode=4c_.1 Length=0.52549 Units=m
New Line.LINE18 Bus1=18 Bus2=19 phases=3 Linecode=4c_.1 Length=2.8804 Units=m
New Line.LINE19 Bus1=19 Bus2=20 phases=3 Linecode=4c_.1 Length=1.193 Units=m
New Line.LINE20 Bus1=20 Bus2=21 phases=3 Linecode=4c_.1 Length=1.5172 Units=m
New Line.LINE21 Bus1=21 Bus2=22 phases=3 Linecode=4c_.1 Length=1.5169 Units=m
New Line.LINE22 Bus1=22 Bus2=23 phases=3 Linecode=4c_.1 Length=0.52464 Units=m
New Line.LINE23 Bus1=23 Bus2=24 phases=3 Linecode=4c_.1 Length=0.26423 Units=m
New Line.LINE24 Bus1=24 Bus2=25 phases=3 Linecode=4c_.1 Length=0.33379 Units=m
New Line.LINE25 Bus1=25 Bus2=26 phases=3 Linecode=4c_.1 Length=0.77251 Units=m
New Line.LINE26 Bus1=26 Bus2=27 phases=3 Linecode=4c_.1 Length=1.3836 Units=m
New Line.LINE27 Bus1=27 Bus2=28 phases=3 Linecode=4c_.1 Length=2.2292 Units=m
New Line.LINE28 Bus1=28 Bus2=29 phases=3 Linecode=4c_.1 Length=1.4251 Units=m
New Line.LINE29 Bus1=29 Bus2=30 phases=3 Linecode=4c_.1 Length=0.48022 Units=m
New Line.LINE30 Bus1=30 Bus2=31 phases=3 Linecode=4c_.1 Length=0.46329 Units=m
New Line.LINE31 Bus1=31 Bus2=32 phases=3 Linecode=4c_.1 Length=0.40471 Units=m
New Line.LINE32 Bus1=32 Bus2=33 phases=3 Linecode=4c_.1 Length=0.26261 Units=m
New Line.LINE33 Bus1=33 Bus2=34 phases=3 Linecode=4c_.1 Length=0.83638 Units=m
New Line.LINE34 Bus1=34 Bus2=35 phases=3 Linecode=4c_.1 Length=1.9065 Units=m
New Line.LINE35 Bus1=35 Bus2=36 phases=3 Linecode=4c_.1 Length=1.4987 Units=m
New Line.LINE36 Bus1=36 Bus2=37 phases=3 Linecode=4c_.1 Length=2.6139 Units=m
New Line.LINE37 Bus1=37 Bus2=38 phases=3 Linecode=4c_.1 Length=0.84095 Units=m
New Line.LINE38 Bus1=38 Bus2=39 phases=3 Linecode=4c_.1 Length=0.65498 Units=m
New Line.LINE39 Bus1=39 Bus2=40 phases=3 Linecode=4c_.1 Length=0.51166 Units=m
New Line.LINE40 Bus1=40 Bus2=41 phases=3 Linecode=4c_.1 Length=1.9621 Units=m
New Line.LINE41 Bus1=41 Bus2=42 phases=3 Linecode=4c_.1 Length=14.2532 Units=m
New Line.LINE42 Bus1=42 Bus2=43 phases=3 Linecode=4c_.1 Length=1.2726 Units=m
New Line.LINE43 Bus1=43 Bus2=44 phases=3 Linecode=4c_.1 Length=2.899 Units=m
New Line.LINE44 Bus1=44 Bus2=45 phases=3 Linecode=4c_.1 Length=1.671 Units=m
New Line.LINE45 Bus1=45 Bus2=46 phases=3 Linecode=4c_.1 Length=0.6603 Units=m
New Line.LINE46 Bus1=45 Bus2=47 phases=3 Linecode=4c_.1 Length=0.8304 Units=m
New Line.LINE47 Bus1=46 Bus2=48 phases=3 Linecode=4c_.1 Length=0.34736 Units=m
New Line.LINE48 Bus1=47 Bus2=49 phases=3 Linecode=4c_.1 Length=0.84042 Units=m
New Line.LINE49 Bus1=48 Bus2=50 phases=3 Linecode=4c_.1 Length=1.0212 Units=m
New Line.LINE50 Bus1=49 Bus2=51 phases=3 Linecode=4c_.1 Length=1.0323 Units=m
New Line.LINE51 Bus1=51 Bus2=52 phases=3 Linecode=4c_.1 Length=6.1533 Units=m
New Line.LINE52 Bus1=52 Bus2=53 phases=3 Linecode=4c_.1 Length=3.4444 Units=m
New Line.LINE53 Bus1=53 Bus2=54 phases=3 Linecode=4c_.1 Length=5.8243 Units=m
New Line.LINE54 Bus1=54 Bus2=55 phases=3 Linecode=4c_.1 Length=0.48258 Units=m
New Line.LINE55 Bus1=55 Bus2=56 phases=3 Linecode=4c_.1 Length=3.4565 Units=m
New Line.LINE56 Bus1=56 Bus2=57 phases=3 Linecode=4c_.04 Length=8.27 Units=m
New Line.LINE57 Bus1=56 Bus2=58 phases=3 Linecode=4c_.1 Length=4.4983 Units=m
New Line.LINE58 Bus1=57 Bus2=59 phases=3 Linecode=4c_.04 Length=5.017 Units=m
New Line.LINE59 Bus1=58 Bus2=60 phases=3 Linecode=25_SAC_XC Length=5.6424 Units=m
New Line.LINE60 Bus1=58 Bus2=61 phases=3 Linecode=4c_.1 Length=3.8494 Units=m
New Line.LINE61 Bus1=59 Bus2=62 phases=3 Linecode=25_SAC_XC Length=6.0755 Units=m
New Line.LINE62 Bus1=59 Bus2=63 phases=3 Linecode=4c_.04 Length=0.82545 Units=m
New Line.LINE63 Bus1=60 Bus2=64 phases=3 Linecode=25_SAC_XC Length=6.1362 Units=m
New Line.LINE64 Bus1=61 Bus2=65 phases=3 Linecode=4c_.1 Length=1.7665 Units=m
New Line.LINE65 Bus1=62 Bus2=66 phases=3 Linecode=25_SAC_XC Length=1.0329 Units=m
New Line.LINE66 Bus1=62 Bus2=67 phases=3 Linecode=25_SAC_XC Length=7.7591 Units=m
New Line.LINE67 Bus1=63 Bus2=68 phases=3 Linecode=4c_.04 Length=0.19311 Units=m
New Line.LINE68 Bus1=63 Bus2=69 phases=3 Linecode=4c_.04 Length=11.1879 Units=m
New Line.LINE69 Bus1=65 Bus2=70 phases=3 Linecode=25_SAC_XC Length=6.383 Units=m
New Line.LINE70 Bus1=65 Bus2=71 phases=3 Linecode=4c_.1 Length=6.3259 Units=m
New Line.LINE71 Bus1=66 Bus2=72 phases=3 Linecode=25_SAC_XC Length=0.1657 Units=m
New Line.LINE72 Bus1=68 Bus2=73 phases=3 Linecode=4c_.04 Length=0.080777 Units=m
New Line.LINE73 Bus1=69 Bus2=74 phases=3 Linecode=25_SAC_XC Length=6.1253 Units=m
New Line.LINE74 Bus1=69 Bus2=75 phases=3 Linecode=4c_.04 Length=1.0001 Units=m
New Line.LINE75 Bus1=70 Bus2=76 phases=3 Linecode=25_SAC_XC Length=4.145 Units=m
New Line.LINE76 Bus1=71 Bus2=77 phases=3 Linecode=4c_.1 Length=0.22802 Units=m
New Line.LINE77 Bus1=71 Bus2=78 phases=3 Linecode=4c_.1 Length=2.4255 Units=m
New Line.LINE78 Bus1=72 Bus2=79 phases=3 Linecode=25_SAC_XC Length=0.093862 Units=m
New Line.LINE79 Bus1=73 Bus2=80 phases=3 Linecode=4c_.04 Length=0.081468 Units=m
New Line.LINE80 Bus1=74 Bus2=81 phases=3 Linecode=25_SAC_XC Length=5.1122 Units=m
New Line.LINE81 Bus1=75 Bus2=82 phases=3 Linecode=4c_.04 Length=0.25807 Units=m
New Line.LINE82 Bus1=77 Bus2=83 phases=3 Linecode=4c_.1 Length=0.089677 Units=m
New Line.LINE83 Bus1=78 Bus2=84 phases=3 Linecode=25_SAC_XC Length=6.1088 Units=m
New Line.LINE84 Bus1=78 Bus2=85 phases=3 Linecode=4c_.1 Length=4.4276 Units=m
New Line.LINE85 Bus1=79 Bus2=86 phases=3 Linecode=25_SAC_XC Length=0.106 Units=m
New Line.LINE86 Bus1=80 Bus2=87 phases=3 Linecode=4c_.04 Length=0.08043 Units=m
New Line.LINE87 Bus1=82 Bus2=88 phases=3 Linecode=4c_.04 Length=0.12724 Units=m
New Line.LINE88 Bus1=83 Bus2=89 phases=3 Linecode=4c_.1 Length=0.083726 Units=m
New Line.LINE89 Bus1=84 Bus2=90 phases=3 Linecode=25_SAC_XC Length=4.7313 Units=m
New Line.LINE90 Bus1=85 Bus2=91 phases=3 Linecode=25_SAC_XC Length=6.611 Units=m
New Line.LINE91 Bus1=85 Bus2=92 phases=3 Linecode=4c_.1 Length=0.51366 Units=m
New Line.LINE92 Bus1=86 Bus2=93 phases=3 Linecode=25_SAC_XC Length=0.13637 Units=m
New Line.LINE93 Bus1=87 Bus2=94 phases=3 Linecode=4c_.04 Length=0.081006 Units=m
New Line.LINE94 Bus1=88 Bus2=95 phases=3 Linecode=4c_.04 Length=0.11183 Units=m
New Line.LINE95 Bus1=89 Bus2=96 phases=3 Linecode=4c_.1 Length=0.11873 Units=m
New Line.LINE96 Bus1=91 Bus2=97 phases=3 Linecode=25_SAC_XC Length=3.8915 Units=m
New Line.LINE97 Bus1=92 Bus2=98 phases=3 Linecode=4c_.1 Length=0.40136 Units=m
New Line.LINE98 Bus1=93 Bus2=99 phases=3 Linecode=25_SAC_XC Length=0.25784 Units=m
New Line.LINE99 Bus1=94 Bus2=100 phases=3 Linecode=4c_.04 Length=0.081271 Units=m
New Line.LINE100 Bus1=95 Bus2=101 phases=3 Linecode=4c_.04 Length=0.11947 Units=m
New Line.LINE101 Bus1=96 Bus2=102 phases=3 Linecode=4c_.1 Length=0.7716 Units=m
New Line.LINE102 Bus1=98 Bus2=103 phases=3 Linecode=4c_.1 Length=0.23174 Units=m
New Line.LINE103 Bus1=99 Bus2=104 phases=3 Linecode=25_SAC_XC Length=1.6577 Units=m
New Line.LINE104 Bus1=100 Bus2=105 phases=3 Linecode=4c_.04 Length=0.39055 Units=m
New Line.LINE105 Bus1=101 Bus2=106 phases=3 Linecode=4c_.04 Length=0.14712 Units=m
New Line.LINE106 Bus1=102 Bus2=107 phases=3 Linecode=4c_.1 Length=0.73 Units=m
New Line.LINE107 Bus1=103 Bus2=108 phases=3 Linecode=4c_.1 Length=0.216 Units=m
New Line.LINE108 Bus1=104 Bus2=109 phases=3 Linecode=25_SAC_XC Length=0.147 Units=m
New Line.LINE109 Bus1=106 Bus2=110 phases=3 Linecode=4c_.04 Length=0.337 Units=m
New Line.LINE110 Bus1=107 Bus2=111 phases=3 Linecode=4c_.1 Length=1.9067 Units=m
New Line.LINE111 Bus1=108 Bus2=112 phases=3 Linecode=4c_.1 Length=1.2434 Units=m
New Line.LINE112 Bus1=109 Bus2=113 phases=3 Linecode=25_SAC_XC Length=0.16148 Units=m
New Line.LINE113 Bus1=110 Bus2=114 phases=3 Linecode=4c_.04 Length=0.1165 Units=m
New Line.LINE114 Bus1=111 Bus2=115 phases=3 Linecode=4c_.1 Length=0.67933 Units=m
New Line.LINE115 Bus1=112 Bus2=116 phases=3 Linecode=4c_.1 Length=5.7434 Units=m
New Line.LINE116 Bus1=113 Bus2=117 phases=3 Linecode=25_SAC_XC Length=0.13092 Units=m
New Line.LINE117 Bus1=114 Bus2=118 phases=3 Linecode=4c_.04 Length=0.074108 Units=m
New Line.LINE118 Bus1=115 Bus2=119 phases=3 Linecode=4c_.1 Length=0.25784 Units=m
New Line.LINE119 Bus1=116 Bus2=120 phases=3 Linecode=25_SAC_XC Length=6.7187 Units=m
New Line.LINE120 Bus1=116 Bus2=121 phases=3 Linecode=4c_.1 Length=8.999 Units=m
New Line.LINE121 Bus1=117 Bus2=122 phases=3 Linecode=25_SAC_XC Length=0.23191 Units=m
New Line.LINE122 Bus1=118 Bus2=123 phases=3 Linecode=4c_.04 Length=0.20887 Units=m
New Line.LINE123 Bus1=119 Bus2=124 phases=3 Linecode=4c_.1 Length=0.21508 Units=m
New Line.LINE124 Bus1=120 Bus2=125 phases=3 Linecode=25_SAC_XC Length=1.0188 Units=m
New Line.LINE125 Bus1=120 Bus2=126 phases=3 Linecode=25_SAC_XC Length=3.5644 Units=m
New Line.LINE126 Bus1=121 Bus2=127 phases=3 Linecode=4c_.1 Length=0.70701 Units=m
New Line.LINE127 Bus1=122 Bus2=128 phases=3 Linecode=25_SAC_XC Length=1.4793 Units=m
New Line.LINE128 Bus1=123 Bus2=129 phases=3 Linecode=4c_.04 Length=0.62275 Units=m
New Line.LINE129 Bus1=124 Bus2=130 phases=3 Linecode=4c_.1 Length=0.30074 Units=m
New Line.LINE130 Bus1=125 Bus2=131 phases=3 Linecode=25_SAC_XC Length=0.16615 Units=m
New Line.LINE131 Bus1=127 Bus2=132 phases=3 Linecode=4c_.1 Length=0.36153 Units=m
New Line.LINE132 Bus1=128 Bus2=133 phases=3 Linecode=25_SAC_XC Length=2.6523 Units=m
New Line.LINE133 Bus1=129 Bus2=134 phases=3 Linecode=4c_.04 Length=0.568 Units=m
New Line.LINE134 Bus1=129 Bus2=135 phases=3 Linecode=25_SAC_XC Length=0.03605 Units=m
New Line.LINE135 Bus1=130 Bus2=136 phases=3 Linecode=4c_.1 Length=0.28318 Units=m
New Line.LINE136 Bus1=131 Bus2=137 phases=3 Linecode=25_SAC_XC Length=0.13822 Units=m
New Line.LINE137 Bus1=132 Bus2=138 phases=3 Linecode=4c_.1 Length=6.1156 Units=m
New Line.LINE138 Bus1=134 Bus2=139 phases=3 Linecode=4c_.04 Length=12.8572 Units=m
New Line.LINE139 Bus1=135 Bus2=140 phases=3 Linecode=25_SAC_XC Length=0.70126 Units=m
New Line.LINE140 Bus1=135 Bus2=141 phases=3 Linecode=25_SAC_XC Length=1.171 Units=m
New Line.LINE141 Bus1=135 Bus2=142 phases=3 Linecode=25_SAC_XC Length=1.8206 Units=m
New Line.LINE142 Bus1=137 Bus2=143 phases=3 Linecode=25_SAC_XC Length=0.10689 Units=m
New Line.LINE143 Bus1=138 Bus2=144 phases=3 Linecode=4c_.1 Length=0.64849 Units=m
New Line.LINE144 Bus1=139 Bus2=145 phases=3 Linecode=25_SAC_XC Length=1.6321 Units=m
New Line.LINE145 Bus1=139 Bus2=146 phases=3 Linecode=4c_.04 Length=3.4463 Units=m
New Line.LINE146 Bus1=141 Bus2=147 phases=3 Linecode=25_SAC_XC Length=0.42804 Units=m
New Line.LINE147 Bus1=142 Bus2=148 phases=3 Linecode=25_SAC_XC Length=0.781 Units=m
New Line.LINE148 Bus1=143 Bus2=149 phases=3 Linecode=25_SAC_XC Length=0.31641 Units=m
New Line.LINE149 Bus1=144 Bus2=150 phases=3 Linecode=4c_.1 Length=0.25784 Units=m
New Line.LINE150 Bus1=145 Bus2=151 phases=3 Linecode=25_SAC_XC Length=7.4119 Units=m
New Line.LINE151 Bus1=146 Bus2=152 phases=3 Linecode=4c_.04 Length=5.933 Units=m
New Line.LINE152 Bus1=147 Bus2=153 phases=3 Linecode=25_SAC_XC Length=5.695 Units=m
New Line.LINE153 Bus1=148 Bus2=154 phases=3 Linecode=25_SAC_XC Length=0.29806 Units=m
New Line.LINE154 Bus1=149 Bus2=155 phases=3 Linecode=25_SAC_XC Length=0.93128 Units=m
New Line.LINE155 Bus1=150 Bus2=156 phases=3 Linecode=4c_.1 Length=0.44325 Units=m
New Line.LINE156 Bus1=151 Bus2=157 phases=3 Linecode=25_SAC_XC Length=0.28551 Units=m
New Line.LINE157 Bus1=152 Bus2=158 phases=3 Linecode=4c_.04 Length=0.40134 Units=m
New Line.LINE158 Bus1=152 Bus2=159 phases=3 Linecode=4c_.04 Length=4.3149 Units=m
New Line.LINE159 Bus1=153 Bus2=160 phases=3 Linecode=25_SAC_XC Length=8.1406 Units=m
New Line.LINE160 Bus1=154 Bus2=161 phases=3 Linecode=25_SAC_XC Length=0.2406 Units=m
New Line.LINE161 Bus1=155 Bus2=162 phases=3 Linecode=25_SAC_XC Length=0.13637 Units=m
New Line.LINE162 Bus1=156 Bus2=163 phases=3 Linecode=4c_.1 Length=6.4214 Units=m
New Line.LINE163 Bus1=157 Bus2=164 phases=3 Linecode=25_SAC_XC Length=0.342 Units=m
New Line.LINE164 Bus1=158 Bus2=165 phases=3 Linecode=4c_.04 Length=0.48241 Units=m
New Line.LINE165 Bus1=159 Bus2=166 phases=3 Linecode=25_SAC_XC Length=2.903 Units=m
New Line.LINE166 Bus1=159 Bus2=167 phases=3 Linecode=4c_.04 Length=3.2458 Units=m
New Line.LINE167 Bus1=161 Bus2=168 phases=3 Linecode=25_SAC_XC Length=0.32482 Units=m
New Line.LINE168 Bus1=162 Bus2=169 phases=3 Linecode=25_SAC_XC Length=0.11957 Units=m
New Line.LINE169 Bus1=163 Bus2=170 phases=3 Linecode=4c_.1 Length=0.60075 Units=m
New Line.LINE170 Bus1=163 Bus2=171 phases=3 Linecode=4c_.1 Length=13.9743 Units=m
New Line.LINE171 Bus1=164 Bus2=172 phases=3 Linecode=25_SAC_XC Length=0.65153 Units=m
New Line.LINE172 Bus1=165 Bus2=173 phases=3 Linecode=4c_.04 Length=0.48217 Units=m
New Line.LINE173 Bus1=166 Bus2=174 phases=3 Linecode=25_SAC_XC Length=5.1907 Units=m
New Line.LINE174 Bus1=167 Bus2=175 phases=3 Linecode=25_SAC_XC Length=3.4258 Units=m
New Line.LINE175 Bus1=167 Bus2=176 phases=3 Linecode=4c_.04 Length=8.1615 Units=m
New Line.LINE176 Bus1=168 Bus2=177 phases=3 Linecode=25_SAC_XC Length=0.92953 Units=m
New Line.LINE177 Bus1=169 Bus2=178 phases=3 Linecode=25_SAC_XC Length=0.172 Units=m
New Line.LINE178 Bus1=170 Bus2=179 phases=3 Linecode=4c_.1 Length=0.85004 Units=m
New Line.LINE179 Bus1=171 Bus2=180 phases=3 Linecode=4c_.1 Length=14.6213 Units=m
New Line.LINE180 Bus1=172 Bus2=181 phases=3 Linecode=25_SAC_XC Length=1.4189 Units=m
New Line.LINE181 Bus1=173 Bus2=182 phases=3 Linecode=4c_.04 Length=0.4824 Units=m
New Line.LINE182 Bus1=174 Bus2=183 phases=3 Linecode=25_SAC_XC Length=0.36871 Units=m
New Line.LINE183 Bus1=175 Bus2=184 phases=3 Linecode=25_SAC_XC Length=5.4451 Units=m
New Line.LINE184 Bus1=176 Bus2=185 phases=3 Linecode=4c_.04 Length=0.29033 Units=m
New Line.LINE185 Bus1=176 Bus2=186 phases=3 Linecode=4c_.04 Length=5.9583 Units=m
New Line.LINE186 Bus1=177 Bus2=187 phases=3 Linecode=25_SAC_XC Length=0.67155 Units=m
New Line.LINE187 Bus1=178 Bus2=188 phases=3 Linecode=25_SAC_XC Length=0.19144 Units=m
New Line.LINE188 Bus1=179 Bus2=189 phases=3 Linecode=4c_.1 Length=0.84919 Units=m
New Line.LINE189 Bus1=180 Bus2=190 phases=3 Linecode=4c_.1 Length=0.24234 Units=m
New Line.LINE190 Bus1=180 Bus2=191 phases=3 Linecode=4c_.1 Length=3.8915 Units=m
New Line.LINE191 Bus1=181 Bus2=192 phases=3 Linecode=25_SAC_XC Length=6.6844 Units=m
New Line.LINE192 Bus1=181 Bus2=193 phases=3 Linecode=25_SAC_XC Length=4.3644 Units=m
New Line.LINE193 Bus1=182 Bus2=194 phases=3 Linecode=4c_.04 Length=8.1036 Units=m
New Line.LINE194 Bus1=183 Bus2=195 phases=3 Linecode=25_SAC_XC Length=0.29905 Units=m
New Line.LINE195 Bus1=184 Bus2=196 phases=3 Linecode=25_SAC_XC Length=0.29905 Units=m
New Line.LINE196 Bus1=185 Bus2=197 phases=3 Linecode=4c_.04 Length=0.14542 Units=m
New Line.LINE197 Bus1=186 Bus2=198 phases=3 Linecode=25_SAC_XC Length=2.6849 Units=m
New Line.LINE198 Bus1=187 Bus2=199 phases=3 Linecode=25_SAC_XC Length=0.55259 Units=m
New Line.LINE199 Bus1=188 Bus2=200 phases=3 Linecode=25_SAC_XC Length=1.9134 Units=m
New Line.LINE200 Bus1=189 Bus2=201 phases=3 Linecode=4c_.1 Length=3.3842 Units=m
New Line.LINE201 Bus1=190 Bus2=202 phases=3 Linecode=4c_.1 Length=0.036359 Units=m
New Line.LINE202 Bus1=191 Bus2=203 phases=3 Linecode=4c_.1 Length=2.4346 Units=m
New Line.LINE203 Bus1=192 Bus2=204 phases=3 Linecode=25_SAC_XC Length=3.7989 Units=m
New Line.LINE204 Bus1=195 Bus2=205 phases=3 Linecode=25_SAC_XC Length=0.28717 Units=m
New Line.LINE205 Bus1=196 Bus2=206 phases=3 Linecode=25_SAC_XC Length=0.22878 Units=m
New Line.LINE206 Bus1=197 Bus2=207 phases=3 Linecode=4c_.04 Length=0.18664 Units=m
New Line.LINE207 Bus1=198 Bus2=208 phases=3 Linecode=25_SAC_XC Length=0.38174 Units=m
New Line.LINE208 Bus1=199 Bus2=209 phases=3 Linecode=25_SAC_XC Length=0.59308 Units=m
New Line.LINE209 Bus1=200 Bus2=210 phases=3 Linecode=25_SAC_XC Length=2.4465 Units=m
New Line.LINE210 Bus1=202 Bus2=211 phases=3 Linecode=4c_.1 Length=0.036797 Units=m
New Line.LINE211 Bus1=203 Bus2=212 phases=3 Linecode=4c_.1 Length=0.40916 Units=m
New Line.LINE212 Bus1=205 Bus2=213 phases=3 Linecode=25_SAC_XC Length=0.2423 Units=m
New Line.LINE213 Bus1=206 Bus2=214 phases=3 Linecode=25_SAC_XC Length=0.2638 Units=m
New Line.LINE214 Bus1=207 Bus2=215 phases=3 Linecode=4c_.04 Length=0.31573 Units=m
New Line.LINE215 Bus1=208 Bus2=216 phases=3 Linecode=25_SAC_XC Length=0.3693 Units=m
New Line.LINE216 Bus1=209 Bus2=217 phases=3 Linecode=25_SAC_XC Length=0.67359 Units=m
New Line.LINE217 Bus1=211 Bus2=218 phases=3 Linecode=4c_.1 Length=0.036401 Units=m
New Line.LINE218 Bus1=212 Bus2=219 phases=3 Linecode=4c_.1 Length=0.3922 Units=m
New Line.LINE219 Bus1=213 Bus2=220 phases=3 Linecode=25_SAC_XC Length=0.14591 Units=m
New Line.LINE220 Bus1=214 Bus2=221 phases=3 Linecode=25_SAC_XC Length=0.23197 Units=m
New Line.LINE221 Bus1=216 Bus2=222 phases=3 Linecode=25_SAC_XC Length=0.33834 Units=m
New Line.LINE222 Bus1=217 Bus2=223 phases=3 Linecode=25_SAC_XC Length=0.5664 Units=m
New Line.LINE223 Bus1=218 Bus2=224 phases=3 Linecode=4c_.1 Length=0.035777 Units=m
New Line.LINE224 Bus1=219 Bus2=225 phases=3 Linecode=4c_.1 Length=1.9633 Units=m
New Line.LINE225 Bus1=220 Bus2=226 phases=3 Linecode=25_SAC_XC Length=0.71789 Units=m
New Line.LINE226 Bus1=221 Bus2=227 phases=3 Linecode=25_SAC_XC Length=1.4988 Units=m
New Line.LINE227 Bus1=222 Bus2=228 phases=3 Linecode=25_SAC_XC Length=1.0254 Units=m
New Line.LINE228 Bus1=223 Bus2=229 phases=3 Linecode=25_SAC_XC Length=3.2628 Units=m
New Line.LINE229 Bus1=224 Bus2=230 phases=3 Linecode=4c_.1 Length=0.036688 Units=m
New Line.LINE230 Bus1=225 Bus2=231 phases=3 Linecode=4c_.1 Length=0.32078 Units=m
New Line.LINE231 Bus1=226 Bus2=232 phases=3 Linecode=25_SAC_XC Length=3.4379 Units=m
New Line.LINE232 Bus1=227 Bus2=233 phases=3 Linecode=25_SAC_XC Length=5.3761 Units=m
New Line.LINE233 Bus1=228 Bus2=234 phases=3 Linecode=25_SAC_XC Length=9.5867 Units=m
New Line.LINE234 Bus1=229 Bus2=235 phases=3 Linecode=25_SAC_XC Length=0.40421 Units=m
New Line.LINE235 Bus1=230 Bus2=236 phases=3 Linecode=4c_.1 Length=0.036346 Units=m
New Line.LINE236 Bus1=231 Bus2=237 phases=3 Linecode=4c_.1 Length=0.45196 Units=m
New Line.LINE237 Bus1=234 Bus2=238 phases=3 Linecode=25_SAC_XC Length=0.29486 Units=m
New Line.LINE238 Bus1=235 Bus2=239 phases=3 Linecode=25_SAC_XC Length=0.30031 Units=m
New Line.LINE239 Bus1=236 Bus2=240 phases=3 Linecode=4c_.1 Length=0.41792 Units=m
New Line.LINE240 Bus1=237 Bus2=241 phases=3 Linecode=4c_.1 Length=6.1742 Units=m
New Line.LINE241 Bus1=238 Bus2=242 phases=3 Linecode=25_SAC_XC Length=0.25516 Units=m
New Line.LINE242 Bus1=239 Bus2=243 phases=3 Linecode=25_SAC_XC Length=0.50638 Units=m
New Line.LINE243 Bus1=241 Bus2=244 phases=3 Linecode=25_SAC_XC Length=7.0364 Units=m
New Line.LINE244 Bus1=241 Bus2=245 phases=3 Linecode=4c_.1 Length=6.493 Units=m
New Line.LINE245 Bus1=242 Bus2=246 phases=3 Linecode=25_SAC_XC Length=0.29334 Units=m
New Line.LINE246 Bus1=243 Bus2=247 phases=3 Linecode=25_SAC_XC Length=1.0569 Units=m
New Line.LINE247 Bus1=244 Bus2=248 phases=3 Linecode=25_SAC_XC Length=5.3583 Units=m
New Line.LINE248 Bus1=245 Bus2=249 phases=3 Linecode=25_SAC_XC Length=6.8489 Units=m
New Line.LINE249 Bus1=245 Bus2=250 phases=3 Linecode=4c_.1 Length=2.2534 Units=m
New Line.LINE250 Bus1=246 Bus2=251 phases=3 Linecode=25_SAC_XC Length=0.42521 Units=m
New Line.LINE251 Bus1=247 Bus2=252 phases=3 Linecode=25_SAC_XC Length=2.8997 Units=m
New Line.LINE252 Bus1=249 Bus2=253 phases=3 Linecode=25_SAC_XC Length=4.5602 Units=m
New Line.LINE253 Bus1=250 Bus2=254 phases=3 Linecode=4_XSC Length=0.24338 Units=m
New Line.LINE254 Bus1=250 Bus2=255 phases=3 Linecode=4c_.1 Length=4.4404 Units=m
New Line.LINE255 Bus1=251 Bus2=256 phases=3 Linecode=25_SAC_XC Length=1.1262 Units=m
New Line.LINE256 Bus1=254 Bus2=257 phases=3 Linecode=4_XSC Length=0.10283 Units=m
New Line.LINE257 Bus1=255 Bus2=258 phases=3 Linecode=4c_.04 Length=0.48266 Units=m
New Line.LINE258 Bus1=255 Bus2=259 phases=3 Linecode=4c_.1 Length=1.8705 Units=m
New Line.LINE259 Bus1=256 Bus2=260 phases=3 Linecode=25_SAC_XC Length=2.2691 Units=m
New Line.LINE260 Bus1=257 Bus2=261 phases=3 Linecode=4_XSC Length=0.10345 Units=m
New Line.LINE261 Bus1=258 Bus2=262 phases=3 Linecode=4c_.04 Length=0.17712 Units=m
New Line.LINE262 Bus1=259 Bus2=263 phases=3 Linecode=4c_.1 Length=0.27573 Units=m
New Line.LINE263 Bus1=261 Bus2=264 phases=3 Linecode=4_XSC Length=0.10341 Units=m
New Line.LINE264 Bus1=262 Bus2=265 phases=3 Linecode=4c_.04 Length=0.14363 Units=m
New Line.LINE265 Bus1=263 Bus2=266 phases=3 Linecode=4c_.1 Length=0.172 Units=m
New Line.LINE266 Bus1=264 Bus2=267 phases=3 Linecode=4_XSC Length=0.1031 Units=m
New Line.LINE267 Bus1=265 Bus2=268 phases=3 Linecode=4c_.04 Length=0.26267 Units=m
New Line.LINE268 Bus1=266 Bus2=269 phases=3 Linecode=4c_.1 Length=0.14872 Units=m
New Line.LINE269 Bus1=267 Bus2=270 phases=3 Linecode=4_XSC Length=0.10312 Units=m
New Line.LINE270 Bus1=268 Bus2=271 phases=3 Linecode=4c_.04 Length=1.972 Units=m
New Line.LINE271 Bus1=269 Bus2=272 phases=3 Linecode=4c_.1 Length=0.17052 Units=m
New Line.LINE272 Bus1=270 Bus2=273 phases=3 Linecode=4_XSC Length=0.10308 Units=m
New Line.LINE273 Bus1=271 Bus2=274 phases=3 Linecode=25_SAC_XC Length=0.47117 Units=m
New Line.LINE274 Bus1=271 Bus2=275 phases=3 Linecode=4c_.04 Length=5.4864 Units=m
New Line.LINE275 Bus1=272 Bus2=276 phases=3 Linecode=4c_.1 Length=10.8748 Units=m
New Line.LINE276 Bus1=273 Bus2=277 phases=3 Linecode=4_XSC Length=0.10296 Units=m
New Line.LINE277 Bus1=274 Bus2=278 phases=3 Linecode=25_SAC_XC Length=0.20448 Units=m
New Line.LINE278 Bus1=275 Bus2=279 phases=3 Linecode=25_SAC_XC Length=6.4177 Units=m
New Line.LINE279 Bus1=275 Bus2=280 phases=3 Linecode=4c_.04 Length=8.1324 Units=m
New Line.LINE280 Bus1=276 Bus2=281 phases=3 Linecode=4c_.1 Length=3.4653 Units=m
New Line.LINE281 Bus1=277 Bus2=282 phases=3 Linecode=4_XSC Length=0.10265 Units=m
New Line.LINE282 Bus1=278 Bus2=283 phases=3 Linecode=25_SAC_XC Length=0.26665 Units=m
New Line.LINE283 Bus1=279 Bus2=284 phases=3 Linecode=25_SAC_XC Length=4.8056 Units=m
New Line.LINE284 Bus1=280 Bus2=285 phases=3 Linecode=4c_.04 Length=0.06965 Units=m
New Line.LINE285 Bus1=281 Bus2=286 phases=3 Linecode=4c_.1 Length=0.43265 Units=m
New Line.LINE286 Bus1=281 Bus2=287 phases=3 Linecode=4c_.1 Length=1.0933 Units=m
New Line.LINE287 Bus1=282 Bus2=288 phases=3 Linecode=4_XSC Length=0.10397 Units=m
New Line.LINE288 Bus1=283 Bus2=289 phases=3 Linecode=25_SAC_XC Length=0.225 Units=m
New Line.LINE289 Bus1=285 Bus2=290 phases=3 Linecode=4c_.04 Length=0.046003 Units=m
New Line.LINE290 Bus1=286 Bus2=291 phases=3 Linecode=4c_.1 Length=0.21974 Units=m
New Line.LINE291 Bus1=287 Bus2=292 phases=3 Linecode=25_SAC_XC Length=0.19513 Units=m
New Line.LINE292 Bus1=287 Bus2=293 phases=3 Linecode=4c_.1 Length=8.7753 Units=m
New Line.LINE293 Bus1=288 Bus2=294 phases=3 Linecode=4_XSC Length=0.10263 Units=m
New Line.LINE294 Bus1=289 Bus2=295 phases=3 Linecode=25_SAC_XC Length=0.20529 Units=m
New Line.LINE295 Bus1=290 Bus2=296 phases=3 Linecode=4c_.04 Length=0.065993 Units=m
New Line.LINE296 Bus1=291 Bus2=297 phases=3 Linecode=4c_.1 Length=0.2286 Units=m
New Line.LINE297 Bus1=292 Bus2=298 phases=3 Linecode=25_SAC_XC Length=0.034482 Units=m
New Line.LINE298 Bus1=293 Bus2=299 phases=3 Linecode=25_SAC_XC Length=0.18707 Units=m
New Line.LINE299 Bus1=293 Bus2=300 phases=3 Linecode=4c_.1 Length=8.563 Units=m
New Line.LINE300 Bus1=294 Bus2=301 phases=3 Linecode=4_XSC Length=0.10269 Units=m
New Line.LINE301 Bus1=295 Bus2=302 phases=3 Linecode=25_SAC_XC Length=0.40112 Units=m
New Line.LINE302 Bus1=296 Bus2=303 phases=3 Linecode=25_SAC_XC Length=8.0896 Units=m
New Line.LINE303 Bus1=296 Bus2=304 phases=3 Linecode=25_SAC_XC Length=0.97395 Units=m
New Line.LINE304 Bus1=297 Bus2=305 phases=3 Linecode=4c_.1 Length=0.44923 Units=m
New Line.LINE305 Bus1=298 Bus2=306 phases=3 Linecode=25_SAC_XC Length=0.080777 Units=m
New Line.LINE306 Bus1=299 Bus2=307 phases=3 Linecode=25_SAC_XC Length=0.059682 Units=m
New Line.LINE307 Bus1=300 Bus2=308 phases=3 Linecode=25_SAC_XC Length=0.164 Units=m
New Line.LINE308 Bus1=300 Bus2=309 phases=3 Linecode=4c_.1 Length=8.7712 Units=m
New Line.LINE309 Bus1=301 Bus2=310 phases=3 Linecode=4_XSC Length=0.10316 Units=m
New Line.LINE310 Bus1=302 Bus2=311 phases=3 Linecode=25_SAC_XC Length=4.659 Units=m
New Line.LINE311 Bus1=303 Bus2=312 phases=3 Linecode=25_SAC_XC Length=4.7678 Units=m
New Line.LINE312 Bus1=304 Bus2=313 phases=3 Linecode=25_SAC_XC Length=1.0376 Units=m
New Line.LINE313 Bus1=305 Bus2=314 phases=3 Linecode=4c_.1 Length=0.3931 Units=m
New Line.LINE314 Bus1=306 Bus2=315 phases=3 Linecode=25_SAC_XC Length=0.059908 Units=m
New Line.LINE315 Bus1=307 Bus2=316 phases=3 Linecode=25_SAC_XC Length=0.042953 Units=m
New Line.LINE316 Bus1=308 Bus2=317 phases=3 Linecode=25_SAC_XC Length=0.044102 Units=m
New Line.LINE317 Bus1=309 Bus2=318 phases=3 Linecode=25_SAC_XC Length=0.21485 Units=m
New Line.LINE318 Bus1=309 Bus2=319 phases=3 Linecode=4c_.1 Length=1.7987 Units=m
New Line.LINE319 Bus1=310 Bus2=320 phases=3 Linecode=4_XSC Length=0.103 Units=m
New Line.LINE320 Bus1=311 Bus2=321 phases=3 Linecode=25_SAC_XC Length=6.001 Units=m
New Line.LINE321 Bus1=313 Bus2=322 phases=3 Linecode=25_SAC_XC Length=1.469 Units=m
New Line.LINE322 Bus1=315 Bus2=323 phases=3 Linecode=25_SAC_XC Length=0.086925 Units=m
New Line.LINE323 Bus1=316 Bus2=324 phases=3 Linecode=25_SAC_XC Length=0.033015 Units=m
New Line.LINE324 Bus1=317 Bus2=325 phases=3 Linecode=25_SAC_XC Length=0.0464 Units=m
New Line.LINE325 Bus1=318 Bus2=326 phases=3 Linecode=25_SAC_XC Length=0.041049 Units=m
New Line.LINE326 Bus1=319 Bus2=327 phases=3 Linecode=4c_.1 Length=0.24616 Units=m
New Line.LINE327 Bus1=319 Bus2=328 phases=3 Linecode=4c_.1 Length=1.0206 Units=m
New Line.LINE328 Bus1=320 Bus2=329 phases=3 Linecode=4_XSC Length=0.10358 Units=m
New Line.LINE329 Bus1=322 Bus2=330 phases=3 Linecode=25_SAC_XC Length=1.4656 Units=m
New Line.LINE330 Bus1=323 Bus2=331 phases=3 Linecode=25_SAC_XC Length=0.088391 Units=m
New Line.LINE331 Bus1=324 Bus2=332 phases=3 Linecode=25_SAC_XC Length=0.086885 Units=m
New Line.LINE332 Bus1=325 Bus2=333 phases=3 Linecode=25_SAC_XC Length=0.051308 Units=m
New Line.LINE333 Bus1=326 Bus2=334 phases=3 Linecode=25_SAC_XC Length=0.03821 Units=m
New Line.LINE334 Bus1=327 Bus2=335 phases=3 Linecode=4c_.1 Length=0.090377 Units=m
New Line.LINE335 Bus1=328 Bus2=336 phases=3 Linecode=4c_.1 Length=0.18816 Units=m
New Line.LINE336 Bus1=329 Bus2=337 phases=3 Linecode=4_XSC Length=0.10253 Units=m
New Line.LINE337 Bus1=330 Bus2=338 phases=3 Linecode=25_SAC_XC Length=1.603 Units=m
New Line.LINE338 Bus1=331 Bus2=339 phases=3 Linecode=25_SAC_XC Length=0.090244 Units=m
New Line.LINE339 Bus1=332 Bus2=340 phases=3 Linecode=25_SAC_XC Length=0.25469 Units=m
New Line.LINE340 Bus1=333 Bus2=341 phases=3 Linecode=25_SAC_XC Length=0.16081 Units=m
New Line.LINE341 Bus1=334 Bus2=342 phases=3 Linecode=25_SAC_XC Length=0.040447 Units=m
New Line.LINE342 Bus1=335 Bus2=343 phases=3 Linecode=4c_.1 Length=0.17864 Units=m
New Line.LINE343 Bus1=336 Bus2=344 phases=3 Linecode=4c_.1 Length=0.15182 Units=m
New Line.LINE344 Bus1=337 Bus2=345 phases=3 Linecode=4_XSC Length=0.10325 Units=m
New Line.LINE345 Bus1=338 Bus2=346 phases=3 Linecode=25_SAC_XC Length=1.2576 Units=m
New Line.LINE346 Bus1=339 Bus2=347 phases=3 Linecode=25_SAC_XC Length=0.076903 Units=m
New Line.LINE347 Bus1=340 Bus2=348 phases=3 Linecode=25_SAC_XC Length=0.056099 Units=m
New Line.LINE348 Bus1=341 Bus2=349 phases=3 Linecode=25_SAC_XC Length=0.051703 Units=m
New Line.LINE349 Bus1=342 Bus2=350 phases=3 Linecode=25_SAC_XC Length=0.055154 Units=m
New Line.LINE350 Bus1=343 Bus2=351 phases=3 Linecode=4c_.1 Length=0.33445 Units=m
New Line.LINE351 Bus1=344 Bus2=352 phases=3 Linecode=4c_.1 Length=0.16476 Units=m
New Line.LINE352 Bus1=345 Bus2=353 phases=3 Linecode=4_XSC Length=0.10332 Units=m
New Line.LINE353 Bus1=346 Bus2=354 phases=3 Linecode=25_SAC_XC Length=1.0993 Units=m
New Line.LINE354 Bus1=347 Bus2=355 phases=3 Linecode=25_SAC_XC Length=0.08268 Units=m
New Line.LINE355 Bus1=348 Bus2=356 phases=3 Linecode=25_SAC_XC Length=0.042 Units=m
New Line.LINE356 Bus1=349 Bus2=357 phases=3 Linecode=25_SAC_XC Length=0.058637 Units=m
New Line.LINE357 Bus1=350 Bus2=358 phases=3 Linecode=25_SAC_XC Length=0.10628 Units=m
New Line.LINE358 Bus1=351 Bus2=359 phases=3 Linecode=4c_.1 Length=0.14921 Units=m
New Line.LINE359 Bus1=352 Bus2=360 phases=3 Linecode=4c_.1 Length=0.11881 Units=m
New Line.LINE360 Bus1=354 Bus2=361 phases=3 Linecode=25_SAC_XC Length=0.79892 Units=m
New Line.LINE361 Bus1=355 Bus2=362 phases=3 Linecode=25_SAC_XC Length=0.082879 Units=m
New Line.LINE362 Bus1=356 Bus2=363 phases=3 Linecode=25_SAC_XC Length=0.030463 Units=m
New Line.LINE363 Bus1=357 Bus2=364 phases=3 Linecode=25_SAC_XC Length=0.060083 Units=m
New Line.LINE364 Bus1=358 Bus2=365 phases=3 Linecode=25_SAC_XC Length=0.032 Units=m
New Line.LINE365 Bus1=359 Bus2=366 phases=3 Linecode=4c_.1 Length=0.1942 Units=m
New Line.LINE366 Bus1=360 Bus2=367 phases=3 Linecode=4c_.1 Length=0.17477 Units=m
New Line.LINE367 Bus1=361 Bus2=368 phases=3 Linecode=25_SAC_XC Length=6.4238 Units=m
New Line.LINE368 Bus1=362 Bus2=369 phases=3 Linecode=25_SAC_XC Length=0.044598 Units=m
New Line.LINE369 Bus1=363 Bus2=370 phases=3 Linecode=25_SAC_XC Length=0.048654 Units=m
New Line.LINE370 Bus1=364 Bus2=371 phases=3 Linecode=25_SAC_XC Length=0.0464 Units=m
New Line.LINE371 Bus1=365 Bus2=372 phases=3 Linecode=25_SAC_XC Length=0.04457 Units=m
New Line.LINE372 Bus1=366 Bus2=373 phases=3 Linecode=4c_.1 Length=0.15129 Units=m
New Line.LINE373 Bus1=367 Bus2=374 phases=3 Linecode=4c_.1 Length=0.16985 Units=m
New Line.LINE374 Bus1=369 Bus2=375 phases=3 Linecode=25_SAC_XC Length=0.054918 Units=m
New Line.LINE375 Bus1=370 Bus2=376 phases=3 Linecode=25_SAC_XC Length=0.053509 Units=m
New Line.LINE376 Bus1=371 Bus2=377 phases=3 Linecode=25_SAC_XC Length=0.045343 Units=m
New Line.LINE377 Bus1=372 Bus2=378 phases=3 Linecode=25_SAC_XC Length=0.056555 Units=m
New Line.LINE378 Bus1=373 Bus2=379 phases=3 Linecode=4c_.1 Length=0.15824 Units=m
New Line.LINE379 Bus1=374 Bus2=380 phases=3 Linecode=4c_.1 Length=0.4117 Units=m
New Line.LINE380 Bus1=375 Bus2=381 phases=3 Linecode=25_SAC_XC Length=6.2825 Units=m
New Line.LINE381 Bus1=376 Bus2=382 phases=3 Linecode=25_SAC_XC Length=0.20498 Units=m
New Line.LINE382 Bus1=377 Bus2=383 phases=3 Linecode=25_SAC_XC Length=0.050559 Units=m
New Line.LINE383 Bus1=378 Bus2=384 phases=3 Linecode=25_SAC_XC Length=0.033121 Units=m
New Line.LINE384 Bus1=379 Bus2=385 phases=3 Linecode=4c_.1 Length=0.258 Units=m
New Line.LINE385 Bus1=380 Bus2=386 phases=3 Linecode=25_SAC_XC Length=0.24423 Units=m
New Line.LINE386 Bus1=380 Bus2=387 phases=3 Linecode=4c_.1 Length=5.5103 Units=m
New Line.LINE387 Bus1=381 Bus2=388 phases=3 Linecode=25_SAC_XC Length=3.2415 Units=m
New Line.LINE388 Bus1=382 Bus2=389 phases=3 Linecode=25_SAC_XC Length=6.2012 Units=m
New Line.LINE389 Bus1=383 Bus2=390 phases=3 Linecode=25_SAC_XC Length=0.18916 Units=m
New Line.LINE390 Bus1=384 Bus2=391 phases=3 Linecode=25_SAC_XC Length=0.080509 Units=m
New Line.LINE391 Bus1=386 Bus2=392 phases=3 Linecode=25_SAC_XC Length=0.10026 Units=m
New Line.LINE392 Bus1=387 Bus2=393 phases=3 Linecode=25_SAC_XC Length=0.26122 Units=m
New Line.LINE393 Bus1=387 Bus2=394 phases=3 Linecode=4c_.1 Length=8.3103 Units=m
New Line.LINE394 Bus1=389 Bus2=395 phases=3 Linecode=25_SAC_XC Length=4.4302 Units=m
New Line.LINE395 Bus1=390 Bus2=396 phases=3 Linecode=25_SAC_XC Length=6.5642 Units=m
New Line.LINE396 Bus1=391 Bus2=397 phases=3 Linecode=25_SAC_XC Length=0.15504 Units=m
New Line.LINE397 Bus1=392 Bus2=398 phases=3 Linecode=25_SAC_XC Length=0.10085 Units=m
New Line.LINE398 Bus1=393 Bus2=399 phases=3 Linecode=25_SAC_XC Length=0.1114 Units=m
New Line.LINE399 Bus1=394 Bus2=400 phases=3 Linecode=25_SAC_XC Length=0.22309 Units=m
New Line.LINE400 Bus1=394 Bus2=401 phases=3 Linecode=4c_.1 Length=7.439 Units=m
New Line.LINE401 Bus1=396 Bus2=402 phases=3 Linecode=25_SAC_XC Length=4.6202 Units=m
New Line.LINE402 Bus1=397 Bus2=403 phases=3 Linecode=25_SAC_XC Length=6.4967 Units=m
New Line.LINE403 Bus1=398 Bus2=404 phases=3 Linecode=25_SAC_XC Length=0.11896 Units=m
New Line.LINE404 Bus1=399 Bus2=405 phases=3 Linecode=25_SAC_XC Length=0.11322 Units=m
New Line.LINE405 Bus1=400 Bus2=406 phases=3 Linecode=25_SAC_XC Length=0.099035 Units=m
New Line.LINE406 Bus1=401 Bus2=407 phases=3 Linecode=25_SAC_XC Length=0.23148 Units=m
New Line.LINE407 Bus1=401 Bus2=408 phases=3 Linecode=4c_.1 Length=3.7611 Units=m
New Line.LINE408 Bus1=403 Bus2=409 phases=3 Linecode=25_SAC_XC Length=4.7988 Units=m
New Line.LINE409 Bus1=404 Bus2=410 phases=3 Linecode=25_SAC_XC Length=0.11982 Units=m
New Line.LINE410 Bus1=405 Bus2=411 phases=3 Linecode=25_SAC_XC Length=0.11476 Units=m
New Line.LINE411 Bus1=406 Bus2=412 phases=3 Linecode=25_SAC_XC Length=0.085235 Units=m
New Line.LINE412 Bus1=407 Bus2=413 phases=3 Linecode=25_SAC_XC Length=0.123 Units=m
New Line.LINE413 Bus1=408 Bus2=414 phases=3 Linecode=4c_.1 Length=0.30881 Units=m
New Line.LINE414 Bus1=408 Bus2=415 phases=3 Linecode=4c_.1 Length=4.3408 Units=m
New Line.LINE415 Bus1=410 Bus2=416 phases=3 Linecode=25_SAC_XC Length=0.14058 Units=m
New Line.LINE416 Bus1=411 Bus2=417 phases=3 Linecode=25_SAC_XC Length=0.12049 Units=m
New Line.LINE417 Bus1=412 Bus2=418 phases=3 Linecode=25_SAC_XC Length=0.095462 Units=m
New Line.LINE418 Bus1=413 Bus2=419 phases=3 Linecode=25_SAC_XC Length=0.12074 Units=m
New Line.LINE419 Bus1=414 Bus2=420 phases=3 Linecode=4c_.1 Length=0.1325 Units=m
New Line.LINE420 Bus1=415 Bus2=421 phases=3 Linecode=4c_.1 Length=0.25951 Units=m
New Line.LINE421 Bus1=416 Bus2=422 phases=3 Linecode=25_SAC_XC Length=0.053254 Units=m
New Line.LINE422 Bus1=417 Bus2=423 phases=3 Linecode=25_SAC_XC Length=0.19251 Units=m
New Line.LINE423 Bus1=418 Bus2=424 phases=3 Linecode=25_SAC_XC Length=0.082 Units=m
New Line.LINE424 Bus1=419 Bus2=425 phases=3 Linecode=25_SAC_XC Length=0.06637 Units=m
New Line.LINE425 Bus1=420 Bus2=426 phases=3 Linecode=4c_.1 Length=0.15579 Units=m
New Line.LINE426 Bus1=421 Bus2=427 phases=3 Linecode=4c_.1 Length=0.26441 Units=m
New Line.LINE427 Bus1=422 Bus2=428 phases=3 Linecode=25_SAC_XC Length=0.11804 Units=m
New Line.LINE428 Bus1=423 Bus2=429 phases=3 Linecode=25_SAC_XC Length=0.23526 Units=m
New Line.LINE429 Bus1=424 Bus2=430 phases=3 Linecode=25_SAC_XC Length=0.081835 Units=m
New Line.LINE430 Bus1=425 Bus2=431 phases=3 Linecode=25_SAC_XC Length=0.069857 Units=m
New Line.LINE431 Bus1=426 Bus2=432 phases=3 Linecode=4c_.1 Length=0.21293 Units=m
New Line.LINE432 Bus1=427 Bus2=433 phases=3 Linecode=4c_.1 Length=2.1945 Units=m
New Line.LINE433 Bus1=428 Bus2=434 phases=3 Linecode=25_SAC_XC Length=0.082377 Units=m
New Line.LINE434 Bus1=429 Bus2=435 phases=3 Linecode=25_SAC_XC Length=0.27918 Units=m
New Line.LINE435 Bus1=430 Bus2=436 phases=3 Linecode=25_SAC_XC Length=0.08268 Units=m
New Line.LINE436 Bus1=431 Bus2=437 phases=3 Linecode=25_SAC_XC Length=0.080777 Units=m
New Line.LINE437 Bus1=432 Bus2=438 phases=3 Linecode=4c_.1 Length=0.15388 Units=m
New Line.LINE438 Bus1=433 Bus2=439 phases=3 Linecode=4c_.1 Length=0.48381 Units=m
New Line.LINE439 Bus1=434 Bus2=440 phases=3 Linecode=25_SAC_XC Length=0.079712 Units=m
New Line.LINE440 Bus1=435 Bus2=441 phases=3 Linecode=25_SAC_XC Length=4.5625 Units=m
New Line.LINE441 Bus1=436 Bus2=442 phases=3 Linecode=25_SAC_XC Length=0.145 Units=m
New Line.LINE442 Bus1=437 Bus2=443 phases=3 Linecode=25_SAC_XC Length=0.10102 Units=m
New Line.LINE443 Bus1=438 Bus2=444 phases=3 Linecode=4c_.1 Length=0.19646 Units=m
New Line.LINE444 Bus1=439 Bus2=445 phases=3 Linecode=4c_.1 Length=0.44194 Units=m
New Line.LINE445 Bus1=440 Bus2=446 phases=3 Linecode=25_SAC_XC Length=0.066483 Units=m
New Line.LINE446 Bus1=441 Bus2=447 phases=3 Linecode=25_SAC_XC Length=3.4387 Units=m
New Line.LINE447 Bus1=442 Bus2=448 phases=3 Linecode=25_SAC_XC Length=0.23526 Units=m
New Line.LINE448 Bus1=443 Bus2=449 phases=3 Linecode=25_SAC_XC Length=0.11557 Units=m
New Line.LINE449 Bus1=444 Bus2=450 phases=3 Linecode=4c_.1 Length=0.3848 Units=m
New Line.LINE450 Bus1=445 Bus2=451 phases=3 Linecode=4c_.1 Length=1.4685 Units=m
New Line.LINE451 Bus1=446 Bus2=452 phases=3 Linecode=25_SAC_XC Length=0.07912 Units=m
New Line.LINE452 Bus1=448 Bus2=453 phases=3 Linecode=25_SAC_XC Length=0.16955 Units=m
New Line.LINE453 Bus1=449 Bus2=454 phases=3 Linecode=25_SAC_XC Length=0.084172 Units=m
New Line.LINE454 Bus1=451 Bus2=455 phases=3 Linecode=4c_.1 Length=3.2899 Units=m
New Line.LINE455 Bus1=452 Bus2=456 phases=3 Linecode=25_SAC_XC Length=0.17623 Units=m
New Line.LINE456 Bus1=453 Bus2=457 phases=3 Linecode=25_SAC_XC Length=0.145 Units=m
New Line.LINE457 Bus1=454 Bus2=458 phases=3 Linecode=25_SAC_XC Length=0.1523 Units=m
New Line.LINE458 Bus1=455 Bus2=459 phases=3 Linecode=4c_.1 Length=0.40976 Units=m
New Line.LINE459 Bus1=456 Bus2=460 phases=3 Linecode=25_SAC_XC Length=0.70731 Units=m
New Line.LINE460 Bus1=457 Bus2=461 phases=3 Linecode=25_SAC_XC Length=5.2976 Units=m
New Line.LINE461 Bus1=458 Bus2=462 phases=3 Linecode=25_SAC_XC Length=0.15588 Units=m
New Line.LINE462 Bus1=459 Bus2=463 phases=3 Linecode=4c_.1 Length=0.62516 Units=m
New Line.LINE463 Bus1=460 Bus2=464 phases=3 Linecode=25_SAC_XC Length=0.54185 Units=m
New Line.LINE464 Bus1=461 Bus2=465 phases=3 Linecode=25_SAC_XC Length=3.3878 Units=m
New Line.LINE465 Bus1=462 Bus2=466 phases=3 Linecode=25_SAC_XC Length=0.065 Units=m
New Line.LINE466 Bus1=463 Bus2=467 phases=3 Linecode=4c_.1 Length=0.57984 Units=m
New Line.LINE467 Bus1=464 Bus2=468 phases=3 Linecode=25_SAC_XC Length=1.6134 Units=m
New Line.LINE468 Bus1=466 Bus2=469 phases=3 Linecode=25_SAC_XC Length=0.15769 Units=m
New Line.LINE469 Bus1=467 Bus2=470 phases=3 Linecode=4c_.1 Length=0.37037 Units=m
New Line.LINE470 Bus1=468 Bus2=471 phases=3 Linecode=25_SAC_XC Length=1.1641 Units=m
New Line.LINE471 Bus1=469 Bus2=472 phases=3 Linecode=25_SAC_XC Length=0.33115 Units=m
New Line.LINE472 Bus1=470 Bus2=473 phases=3 Linecode=4c_.1 Length=1.2817 Units=m
New Line.LINE473 Bus1=471 Bus2=474 phases=3 Linecode=25_SAC_XC Length=3.1383 Units=m
New Line.LINE474 Bus1=472 Bus2=475 phases=3 Linecode=25_SAC_XC Length=4.954 Units=m
New Line.LINE475 Bus1=473 Bus2=476 phases=3 Linecode=4c_.1 Length=4.6716 Units=m
New Line.LINE476 Bus1=474 Bus2=477 phases=3 Linecode=25_SAC_XC Length=2.241 Units=m
New Line.LINE477 Bus1=475 Bus2=478 phases=3 Linecode=25_SAC_XC Length=3.779 Units=m
New Line.LINE478 Bus1=476 Bus2=479 phases=3 Linecode=4c_.1 Length=0.25531 Units=m
New Line.LINE479 Bus1=479 Bus2=480 phases=3 Linecode=4c_.1 Length=0.14345 Units=m
New Line.LINE480 Bus1=480 Bus2=481 phases=3 Linecode=4c_.1 Length=0.2017 Units=m
New Line.LINE481 Bus1=481 Bus2=482 phases=3 Linecode=4c_.1 Length=0.34492 Units=m
New Line.LINE482 Bus1=482 Bus2=483 phases=3 Linecode=4c_.1 Length=2.0488 Units=m
New Line.LINE483 Bus1=483 Bus2=484 phases=3 Linecode=4c_.1 Length=0.89085 Units=m
New Line.LINE484 Bus1=484 Bus2=485 phases=3 Linecode=4c_.1 Length=1.0094 Units=m
New Line.LINE485 Bus1=485 Bus2=486 phases=3 Linecode=4c_.1 Length=0.50026 Units=m
New Line.LINE486 Bus1=486 Bus2=487 phases=3 Linecode=4c_.06 Length=4.2801 Units=m
New Line.LINE487 Bus1=487 Bus2=488 phases=3 Linecode=4c_.06 Length=0.29934 Units=m
New Line.LINE488 Bus1=488 Bus2=489 phases=3 Linecode=4c_.06 Length=0.21225 Units=m
New Line.LINE489 Bus1=489 Bus2=490 phases=3 Linecode=4c_.06 Length=0.22953 Units=m
New Line.LINE490 Bus1=490 Bus2=491 phases=3 Linecode=4c_.06 Length=0.3514 Units=m
New Line.LINE491 Bus1=491 Bus2=492 phases=3 Linecode=4c_.06 Length=5.684 Units=m
New Line.LINE492 Bus1=492 Bus2=493 phases=3 Linecode=4c_.06 Length=0.40419 Units=m
New Line.LINE493 Bus1=493 Bus2=494 phases=3 Linecode=4c_.06 Length=0.27408 Units=m
New Line.LINE494 Bus1=494 Bus2=495 phases=3 Linecode=4c_.06 Length=0.25533 Units=m
New Line.LINE495 Bus1=495 Bus2=496 phases=3 Linecode=4c_.06 Length=0.20977 Units=m
New Line.LINE496 Bus1=496 Bus2=497 phases=3 Linecode=4c_.06 Length=0.20796 Units=m
New Line.LINE497 Bus1=497 Bus2=498 phases=3 Linecode=4c_.06 Length=1.9046 Units=m
New Line.LINE498 Bus1=498 Bus2=499 phases=3 Linecode=4c_.06 Length=11.1388 Units=m
New Line.LINE499 Bus1=499 Bus2=500 phases=3 Linecode=4c_.06 Length=2.305 Units=m
New Line.LINE500 Bus1=500 Bus2=501 phases=3 Linecode=4c_.06 Length=2.9635 Units=m
New Line.LINE501 Bus1=501 Bus2=502 phases=3 Linecode=4c_.06 Length=2.9833 Units=m
New Line.LINE502 Bus1=502 Bus2=503 phases=3 Linecode=4c_.06 Length=2.8695 Units=m
New Line.LINE503 Bus1=503 Bus2=504 phases=3 Linecode=4c_.06 Length=2.9659 Units=m
New Line.LINE504 Bus1=504 Bus2=505 phases=3 Linecode=4c_.06 Length=3.0258 Units=m
New Line.LINE505 Bus1=505 Bus2=506 phases=3 Linecode=4c_.06 Length=2.602 Units=m
New Line.LINE506 Bus1=506 Bus2=507 phases=3 Linecode=25_SAC_XC Length=6.5787 Units=m
New Line.LINE507 Bus1=506 Bus2=508 phases=3 Linecode=4c_.06 Length=4.8063 Units=m
New Line.LINE508 Bus1=507 Bus2=509 phases=3 Linecode=25_SAC_XC Length=6.7831 Units=m
New Line.LINE509 Bus1=508 Bus2=510 phases=3 Linecode=4c_.06 Length=4.3375 Units=m
New Line.LINE510 Bus1=510 Bus2=511 phases=3 Linecode=4c_.06 Length=3.4236 Units=m
New Line.LINE511 Bus1=511 Bus2=512 phases=3 Linecode=25_SAC_XC Length=5.9211 Units=m
New Line.LINE512 Bus1=511 Bus2=513 phases=3 Linecode=4c_.06 Length=5.7119 Units=m
New Line.LINE513 Bus1=512 Bus2=514 phases=3 Linecode=25_SAC_XC Length=0.14206 Units=m
New Line.LINE514 Bus1=513 Bus2=515 phases=3 Linecode=4c_.06 Length=2.5849 Units=m
New Line.LINE515 Bus1=514 Bus2=516 phases=3 Linecode=25_SAC_XC Length=0.1057 Units=m
New Line.LINE516 Bus1=515 Bus2=517 phases=3 Linecode=4c_.06 Length=1.3855 Units=m
New Line.LINE517 Bus1=516 Bus2=518 phases=3 Linecode=25_SAC_XC Length=0.097622 Units=m
New Line.LINE518 Bus1=517 Bus2=519 phases=3 Linecode=4c_.06 Length=7.2965 Units=m
New Line.LINE519 Bus1=518 Bus2=520 phases=3 Linecode=25_SAC_XC Length=0.096177 Units=m
New Line.LINE520 Bus1=519 Bus2=521 phases=3 Linecode=25_SAC_XC Length=6.9334 Units=m
New Line.LINE521 Bus1=519 Bus2=522 phases=3 Linecode=4c_.06 Length=5.5978 Units=m
New Line.LINE522 Bus1=520 Bus2=523 phases=3 Linecode=25_SAC_XC Length=0.14946 Units=m
New Line.LINE523 Bus1=521 Bus2=524 phases=3 Linecode=25_SAC_XC Length=0.13372 Units=m
New Line.LINE524 Bus1=522 Bus2=525 phases=3 Linecode=4c_.06 Length=5.6351 Units=m
New Line.LINE525 Bus1=523 Bus2=526 phases=3 Linecode=25_SAC_XC Length=0.61637 Units=m
New Line.LINE526 Bus1=524 Bus2=527 phases=3 Linecode=25_SAC_XC Length=0.13254 Units=m
New Line.LINE527 Bus1=525 Bus2=528 phases=3 Linecode=4c_.06 Length=0.98975 Units=m
New Line.LINE528 Bus1=526 Bus2=529 phases=3 Linecode=25_SAC_XC Length=0.93372 Units=m
New Line.LINE529 Bus1=526 Bus2=530 phases=3 Linecode=25_SAC_XC Length=4.6071 Units=m
New Line.LINE530 Bus1=527 Bus2=531 phases=3 Linecode=25_SAC_XC Length=0.16867 Units=m
New Line.LINE531 Bus1=528 Bus2=532 phases=3 Linecode=4c_.06 Length=0.94027 Units=m
New Line.LINE532 Bus1=529 Bus2=533 phases=3 Linecode=25_SAC_XC Length=0.18404 Units=m
New Line.LINE533 Bus1=531 Bus2=534 phases=3 Linecode=25_SAC_XC Length=0.5028 Units=m
New Line.LINE534 Bus1=532 Bus2=535 phases=3 Linecode=25_SAC_XC Length=6.9194 Units=m
New Line.LINE535 Bus1=532 Bus2=536 phases=3 Linecode=25_SAC_XC Length=6.5603 Units=m
New Line.LINE536 Bus1=533 Bus2=537 phases=3 Linecode=25_SAC_XC Length=0.17877 Units=m
New Line.LINE537 Bus1=534 Bus2=538 phases=3 Linecode=25_SAC_XC Length=0.1365 Units=m
New Line.LINE538 Bus1=534 Bus2=539 phases=3 Linecode=25_SAC_XC Length=5.1044 Units=m
New Line.LINE539 Bus1=535 Bus2=540 phases=3 Linecode=25_SAC_XC Length=4.0029 Units=m
New Line.LINE540 Bus1=536 Bus2=541 phases=3 Linecode=25_SAC_XC Length=0.11385 Units=m
New Line.LINE541 Bus1=537 Bus2=542 phases=3 Linecode=25_SAC_XC Length=0.23658 Units=m
New Line.LINE542 Bus1=538 Bus2=543 phases=3 Linecode=25_SAC_XC Length=0.30263 Units=m
New Line.LINE543 Bus1=540 Bus2=544 phases=3 Linecode=25_SAC_XC Length=7.3944 Units=m
New Line.LINE544 Bus1=541 Bus2=545 phases=3 Linecode=25_SAC_XC Length=0.10728 Units=m
New Line.LINE545 Bus1=542 Bus2=546 phases=3 Linecode=25_SAC_XC Length=0.17614 Units=m
New Line.LINE546 Bus1=543 Bus2=547 phases=3 Linecode=25_SAC_XC Length=0.49785 Units=m
New Line.LINE547 Bus1=544 Bus2=548 phases=3 Linecode=25_SAC_XC Length=1.6606 Units=m
New Line.LINE548 Bus1=545 Bus2=549 phases=3 Linecode=25_SAC_XC Length=0.145 Units=m
New Line.LINE549 Bus1=546 Bus2=550 phases=3 Linecode=25_SAC_XC Length=0.23394 Units=m
New Line.LINE550 Bus1=547 Bus2=551 phases=3 Linecode=25_SAC_XC Length=0.218 Units=m
New Line.LINE551 Bus1=548 Bus2=552 phases=3 Linecode=25_SAC_XC Length=0.54713 Units=m
New Line.LINE552 Bus1=549 Bus2=553 phases=3 Linecode=25_SAC_XC Length=0.63298 Units=m
New Line.LINE553 Bus1=550 Bus2=554 phases=3 Linecode=25_SAC_XC Length=0.1985 Units=m
New Line.LINE554 Bus1=551 Bus2=555 phases=3 Linecode=25_SAC_XC Length=0.25777 Units=m
New Line.LINE555 Bus1=552 Bus2=556 phases=3 Linecode=25_SAC_XC Length=0.58686 Units=m
New Line.LINE556 Bus1=553 Bus2=557 phases=3 Linecode=25_SAC_XC Length=0.20975 Units=m
New Line.LINE557 Bus1=553 Bus2=558 phases=3 Linecode=25_SAC_XC Length=5.4447 Units=m
New Line.LINE558 Bus1=554 Bus2=559 phases=3 Linecode=25_SAC_XC Length=0.72712 Units=m
New Line.LINE559 Bus1=555 Bus2=560 phases=3 Linecode=25_SAC_XC Length=0.22844 Units=m
New Line.LINE560 Bus1=556 Bus2=561 phases=3 Linecode=25_SAC_XC Length=0.45214 Units=m
New Line.LINE561 Bus1=557 Bus2=562 phases=3 Linecode=25_SAC_XC Length=0.056223 Units=m
New Line.LINE562 Bus1=559 Bus2=563 phases=3 Linecode=25_SAC_XC Length=2.8588 Units=m
New Line.LINE563 Bus1=560 Bus2=564 phases=3 Linecode=25_SAC_XC Length=0.195 Units=m
New Line.LINE564 Bus1=561 Bus2=565 phases=3 Linecode=25_SAC_XC Length=0.70643 Units=m
New Line.LINE565 Bus1=562 Bus2=566 phases=3 Linecode=25_SAC_XC Length=0.079699 Units=m
New Line.LINE566 Bus1=563 Bus2=567 phases=3 Linecode=25_SAC_XC Length=0.19483 Units=m
New Line.LINE567 Bus1=564 Bus2=568 phases=3 Linecode=25_SAC_XC Length=0.123 Units=m
New Line.LINE568 Bus1=565 Bus2=569 phases=3 Linecode=25_SAC_XC Length=2.1006 Units=m
New Line.LINE569 Bus1=566 Bus2=570 phases=3 Linecode=25_SAC_XC Length=0.11065 Units=m
New Line.LINE570 Bus1=567 Bus2=571 phases=3 Linecode=25_SAC_XC Length=0.14624 Units=m
New Line.LINE571 Bus1=568 Bus2=572 phases=3 Linecode=25_SAC_XC Length=3.4581 Units=m
New Line.LINE572 Bus1=569 Bus2=573 phases=3 Linecode=25_SAC_XC Length=6.3214 Units=m
New Line.LINE573 Bus1=570 Bus2=574 phases=3 Linecode=25_SAC_XC Length=0.70389 Units=m
New Line.LINE574 Bus1=571 Bus2=575 phases=3 Linecode=25_SAC_XC Length=0.15743 Units=m
New Line.LINE575 Bus1=572 Bus2=576 phases=3 Linecode=25_SAC_XC Length=0.20484 Units=m
New Line.LINE576 Bus1=573 Bus2=577 phases=3 Linecode=25_SAC_XC Length=0.23531 Units=m
New Line.LINE577 Bus1=574 Bus2=578 phases=3 Linecode=25_SAC_XC Length=0.11807 Units=m
New Line.LINE578 Bus1=575 Bus2=579 phases=3 Linecode=25_SAC_XC Length=0.15933 Units=m
New Line.LINE579 Bus1=576 Bus2=580 phases=3 Linecode=25_SAC_XC Length=0.11014 Units=m
New Line.LINE580 Bus1=577 Bus2=581 phases=3 Linecode=25_SAC_XC Length=0.18612 Units=m
New Line.LINE581 Bus1=578 Bus2=582 phases=3 Linecode=25_SAC_XC Length=0.20172 Units=m
New Line.LINE582 Bus1=579 Bus2=583 phases=3 Linecode=25_SAC_XC Length=0.24212 Units=m
New Line.LINE583 Bus1=580 Bus2=584 phases=3 Linecode=25_SAC_XC Length=0.19004 Units=m
New Line.LINE584 Bus1=581 Bus2=585 phases=3 Linecode=25_SAC_XC Length=0.88191 Units=m
New Line.LINE585 Bus1=582 Bus2=586 phases=3 Linecode=25_SAC_XC Length=0.12988 Units=m
New Line.LINE586 Bus1=583 Bus2=587 phases=3 Linecode=25_SAC_XC Length=0.124 Units=m
New Line.LINE587 Bus1=584 Bus2=588 phases=3 Linecode=25_SAC_XC Length=0.18341 Units=m
New Line.LINE588 Bus1=585 Bus2=589 phases=3 Linecode=25_SAC_XC Length=3.8406 Units=m
New Line.LINE589 Bus1=586 Bus2=590 phases=3 Linecode=25_SAC_XC Length=0.30487 Units=m
New Line.LINE590 Bus1=587 Bus2=591 phases=3 Linecode=25_SAC_XC Length=0.21064 Units=m
New Line.LINE591 Bus1=588 Bus2=592 phases=3 Linecode=25_SAC_XC Length=0.2586 Units=m
New Line.LINE592 Bus1=590 Bus2=593 phases=3 Linecode=25_SAC_XC Length=0.10288 Units=m
New Line.LINE593 Bus1=591 Bus2=594 phases=3 Linecode=25_SAC_XC Length=0.86062 Units=m
New Line.LINE594 Bus1=592 Bus2=595 phases=3 Linecode=25_SAC_XC Length=0.68057 Units=m
New Line.LINE595 Bus1=593 Bus2=596 phases=3 Linecode=25_SAC_XC Length=0.082735 Units=m
New Line.LINE596 Bus1=594 Bus2=597 phases=3 Linecode=25_SAC_XC Length=6.6454 Units=m
New Line.LINE597 Bus1=595 Bus2=598 phases=3 Linecode=25_SAC_XC Length=4.231 Units=m
New Line.LINE598 Bus1=596 Bus2=599 phases=3 Linecode=25_SAC_XC Length=0.12838 Units=m
New Line.LINE599 Bus1=599 Bus2=600 phases=3 Linecode=25_SAC_XC Length=4.1218 Units=m
New Line.LINE600 Bus1=600 Bus2=601 phases=3 Linecode=25_SAC_XC Length=0.079404 Units=m
New Line.LINE601 Bus1=601 Bus2=602 phases=3 Linecode=25_SAC_XC Length=0.11065 Units=m
New Line.LINE602 Bus1=602 Bus2=603 phases=3 Linecode=25_SAC_XC Length=0.15135 Units=m
New Line.LINE603 Bus1=603 Bus2=604 phases=3 Linecode=25_SAC_XC Length=0.30349 Units=m
New Line.LINE604 Bus1=604 Bus2=605 phases=3 Linecode=25_SAC_XC Length=0.094705 Units=m
New Line.LINE605 Bus1=605 Bus2=606 phases=3 Linecode=25_SAC_XC Length=0.131 Units=m
New Line.LINE606 Bus1=606 Bus2=607 phases=3 Linecode=25_SAC_XC Length=0.70588 Units=m
New Line.LINE607 Bus1=607 Bus2=608 phases=3 Linecode=25_SAC_XC Length=4.5816 Units=m
